data/feeders/R2-12.47-1.glm
clock {
     timezone EST+5EDT;
     timestamp '2000-01-01 0:00:00';
     stoptime '2000-01-01 0:01:00';
}
#set profiler=1
module tape;
module powerflow{
  solver_method NR;
  default_maximum_voltage_error 1e-6;
};
object transformer_configuration {
  name XF1_PADMOUNT_BS_15;
  power_rating 15.00;
  powerA_rating 0.0;
  powerB_rating 15.00;
  powerC_rating 0.0;
  install_type PADMOUNT;
  connect_type SINGLE_PHASE_CENTER_TAPPED;
  primary_voltage 7200.0;
  secondary_voltage 120.0;
  resistance 0.00850;
  resistance1 0.01700;
  resistance2 0.01700;
  reactance 0.01176;
  reactance1 0.00588;
  reactance2 0.00588;
  shunt_resistance 166.67;
  shunt_reactance 39.53;
}
object transformer_configuration {
  name XF1_PADMOUNT_BS_25;
  power_rating 25.00;
  powerA_rating 0.0;
  powerB_rating 25.00;
  powerC_rating 0.0;
  install_type PADMOUNT;
  connect_type SINGLE_PHASE_CENTER_TAPPED;
  primary_voltage 7200.0;
  secondary_voltage 120.0;
  resistance 0.00800;
  resistance1 0.01600;
  resistance2 0.01600;
  reactance 0.01208;
  reactance1 0.00604;
  reactance2 0.00604;
  shunt_resistance 192.31;
  shunt_reactance 51.81;
}
object transformer_configuration {
  name XF1_PADMOUNT_CS_15;
  power_rating 15.00;
  powerA_rating 0.0;
  powerB_rating 0.0;
  powerC_rating 15.00;
  install_type PADMOUNT;
  connect_type SINGLE_PHASE_CENTER_TAPPED;
  primary_voltage 7200.0;
  secondary_voltage 120.0;
  resistance 0.00850;
  resistance1 0.01700;
  resistance2 0.01700;
  reactance 0.01176;
  reactance1 0.00588;
  reactance2 0.00588;
  shunt_resistance 166.67;
  shunt_reactance 39.53;
}
object transformer_configuration {
  name XF1_PADMOUNT_CS_37p5;
  power_rating 37.50;
  powerA_rating 0.0;
  powerB_rating 0.0;
  powerC_rating 37.50;
  install_type PADMOUNT;
  connect_type SINGLE_PHASE_CENTER_TAPPED;
  primary_voltage 7200.0;
  secondary_voltage 120.0;
  resistance 0.00725;
  resistance1 0.01450;
  resistance2 0.01450;
  reactance 0.01320;
  reactance1 0.00660;
  reactance2 0.00660;
  shunt_resistance 212.77;
  shunt_reactance 57.47;
}
object transformer_configuration {
  name XF1_PADMOUNT_CS_25;
  power_rating 25.00;
  powerA_rating 0.0;
  powerB_rating 0.0;
  powerC_rating 25.00;
  install_type PADMOUNT;
  connect_type SINGLE_PHASE_CENTER_TAPPED;
  primary_voltage 7200.0;
  secondary_voltage 120.0;
  resistance 0.00800;
  resistance1 0.01600;
  resistance2 0.01600;
  reactance 0.01208;
  reactance1 0.00604;
  reactance2 0.00604;
  shunt_resistance 192.31;
  shunt_reactance 51.81;
}
object transformer_configuration {
  name XF1_POLETOP_AS_5;
  power_rating 5.00;
  powerA_rating 5.00;
  powerB_rating 0.0;
  powerC_rating 0.0;
  install_type POLETOP;
  connect_type SINGLE_PHASE_CENTER_TAPPED;
  primary_voltage 7200.0;
  secondary_voltage 120.0;
  resistance 0.01050;
  resistance1 0.02100;
  resistance2 0.02100;
  reactance 0.01224;
  reactance1 0.00612;
  reactance2 0.00612;
  shunt_resistance 111.11;
  shunt_reactance 29.59;
}
object transformer_configuration {
  name XF1_POLETOP_BS_5;
  power_rating 5.00;
  powerA_rating 0.0;
  powerB_rating 5.00;
  powerC_rating 0.0;
  install_type POLETOP;
  connect_type SINGLE_PHASE_CENTER_TAPPED;
  primary_voltage 7200.0;
  secondary_voltage 120.0;
  resistance 0.01050;
  resistance1 0.02100;
  resistance2 0.02100;
  reactance 0.01224;
  reactance1 0.00612;
  reactance2 0.00612;
  shunt_resistance 111.11;
  shunt_reactance 29.59;
}
object transformer_configuration {
  name XF1_POLETOP_CS_15;
  power_rating 15.00;
  powerA_rating 0.0;
  powerB_rating 0.0;
  powerC_rating 15.00;
  install_type POLETOP;
  connect_type SINGLE_PHASE_CENTER_TAPPED;
  primary_voltage 7200.0;
  secondary_voltage 120.0;
  resistance 0.00850;
  resistance1 0.01700;
  resistance2 0.01700;
  reactance 0.01176;
  reactance1 0.00588;
  reactance2 0.00588;
  shunt_resistance 166.67;
  shunt_reactance 39.53;
}
object transformer_configuration {
  name XF1_PADMOUNT_AS_15;
  power_rating 15.00;
  powerA_rating 15.00;
  powerB_rating 0.0;
  powerC_rating 0.0;
  install_type PADMOUNT;
  connect_type SINGLE_PHASE_CENTER_TAPPED;
  primary_voltage 7200.0;
  secondary_voltage 120.0;
  resistance 0.00850;
  resistance1 0.01700;
  resistance2 0.01700;
  reactance 0.01176;
  reactance1 0.00588;
  reactance2 0.00588;
  shunt_resistance 166.67;
  shunt_reactance 39.53;
}
object transformer_configuration {
  name XF1_PADMOUNT_AS_50;
  power_rating 50.00;
  powerA_rating 50.00;
  powerB_rating 0.0;
  powerC_rating 0.0;
  install_type PADMOUNT;
  connect_type SINGLE_PHASE_CENTER_TAPPED;
  primary_voltage 7200.0;
  secondary_voltage 120.0;
  resistance 0.00650;
  resistance1 0.01300;
  resistance2 0.01300;
  reactance 0.01416;
  reactance1 0.00708;
  reactance2 0.00708;
  shunt_resistance 222.22;
  shunt_reactance 64.94;
}
object transformer_configuration {
  name XF1_PADMOUNT_AS_5;
  power_rating 5.00;
  powerA_rating 5.00;
  powerB_rating 0.0;
  powerC_rating 0.0;
  install_type PADMOUNT;
  connect_type SINGLE_PHASE_CENTER_TAPPED;
  primary_voltage 7200.0;
  secondary_voltage 120.0;
  resistance 0.01050;
  resistance1 0.02100;
  resistance2 0.02100;
  reactance 0.01224;
  reactance1 0.00612;
  reactance2 0.00612;
  shunt_resistance 111.11;
  shunt_reactance 29.59;
}
object transformer_configuration {
  name XF1_PADMOUNT_BS_5;
  power_rating 5.00;
  powerA_rating 0.0;
  powerB_rating 5.00;
  powerC_rating 0.0;
  install_type PADMOUNT;
  connect_type SINGLE_PHASE_CENTER_TAPPED;
  primary_voltage 7200.0;
  secondary_voltage 120.0;
  resistance 0.01050;
  resistance1 0.02100;
  resistance2 0.02100;
  reactance 0.01224;
  reactance1 0.00612;
  reactance2 0.00612;
  shunt_resistance 111.11;
  shunt_reactance 29.59;
}
object transformer_configuration {
  name XF1_PADMOUNT_CS_5;
  power_rating 5.00;
  powerA_rating 0.0;
  powerB_rating 0.0;
  powerC_rating 5.00;
  install_type PADMOUNT;
  connect_type SINGLE_PHASE_CENTER_TAPPED;
  primary_voltage 7200.0;
  secondary_voltage 120.0;
  resistance 0.01050;
  resistance1 0.02100;
  resistance2 0.02100;
  reactance 0.01224;
  reactance1 0.00612;
  reactance2 0.00612;
  shunt_resistance 111.11;
  shunt_reactance 29.59;
}
object transformer_configuration {
  name XF1_PADMOUNT_AS_25;
  power_rating 25.00;
  powerA_rating 25.00;
  powerB_rating 0.0;
  powerC_rating 0.0;
  install_type PADMOUNT;
  connect_type SINGLE_PHASE_CENTER_TAPPED;
  primary_voltage 7200.0;
  secondary_voltage 120.0;
  resistance 0.00800;
  resistance1 0.01600;
  resistance2 0.01600;
  reactance 0.01208;
  reactance1 0.00604;
  reactance2 0.00604;
  shunt_resistance 192.31;
  shunt_reactance 51.81;
}
object transformer_configuration {
  name XF1_PADMOUNT_BS_10;
  power_rating 10.00;
  powerA_rating 0.0;
  powerB_rating 10.00;
  powerC_rating 0.0;
  install_type PADMOUNT;
  connect_type SINGLE_PHASE_CENTER_TAPPED;
  primary_voltage 7200.0;
  secondary_voltage 120.0;
  resistance 0.00950;
  resistance1 0.01900;
  resistance2 0.01900;
  reactance 0.01040;
  reactance1 0.00520;
  reactance2 0.00520;
  shunt_resistance 147.06;
  shunt_reactance 34.25;
}
object transformer_configuration {
  name XF1_PADMOUNT_AS_37p5;
  power_rating 37.50;
  powerA_rating 37.50;
  powerB_rating 0.0;
  powerC_rating 0.0;
  install_type PADMOUNT;
  connect_type SINGLE_PHASE_CENTER_TAPPED;
  primary_voltage 7200.0;
  secondary_voltage 120.0;
  resistance 0.00725;
  resistance1 0.01450;
  resistance2 0.01450;
  reactance 0.01320;
  reactance1 0.00660;
  reactance2 0.00660;
  shunt_resistance 212.77;
  shunt_reactance 57.47;
}
object transformer_configuration {
  name XF1_POLETOP_BS_15;
  power_rating 15.00;
  powerA_rating 0.0;
  powerB_rating 15.00;
  powerC_rating 0.0;
  install_type POLETOP;
  connect_type SINGLE_PHASE_CENTER_TAPPED;
  primary_voltage 7200.0;
  secondary_voltage 120.0;
  resistance 0.00850;
  resistance1 0.01700;
  resistance2 0.01700;
  reactance 0.01176;
  reactance1 0.00588;
  reactance2 0.00588;
  shunt_resistance 166.67;
  shunt_reactance 39.53;
}
object transformer_configuration {
  name XF1_POLETOP_BS_25;
  power_rating 25.00;
  powerA_rating 0.0;
  powerB_rating 25.00;
  powerC_rating 0.0;
  install_type POLETOP;
  connect_type SINGLE_PHASE_CENTER_TAPPED;
  primary_voltage 7200.0;
  secondary_voltage 120.0;
  resistance 0.00800;
  resistance1 0.01600;
  resistance2 0.01600;
  reactance 0.01208;
  reactance1 0.00604;
  reactance2 0.00604;
  shunt_resistance 192.31;
  shunt_reactance 51.81;
}
object transformer_configuration {
  name XF1_POLETOP_CS_25;
  power_rating 25.00;
  powerA_rating 0.0;
  powerB_rating 0.0;
  powerC_rating 25.00;
  install_type POLETOP;
  connect_type SINGLE_PHASE_CENTER_TAPPED;
  primary_voltage 7200.0;
  secondary_voltage 120.0;
  resistance 0.00800;
  resistance1 0.01600;
  resistance2 0.01600;
  reactance 0.01208;
  reactance1 0.00604;
  reactance2 0.00604;
  shunt_resistance 192.31;
  shunt_reactance 51.81;
}
object transformer_configuration {
  name XF1_POLETOP_CS_50;
  power_rating 50.00;
  powerA_rating 0.0;
  powerB_rating 0.0;
  powerC_rating 50.00;
  install_type POLETOP;
  connect_type SINGLE_PHASE_CENTER_TAPPED;
  primary_voltage 7200.0;
  secondary_voltage 120.0;
  resistance 0.00650;
  resistance1 0.01300;
  resistance2 0.01300;
  reactance 0.01416;
  reactance1 0.00708;
  reactance2 0.00708;
  shunt_resistance 222.22;
  shunt_reactance 64.94;
}
object transformer_configuration {
  name XF1_POLETOP_BS_37p5;
  power_rating 37.50;
  powerA_rating 0.0;
  powerB_rating 37.50;
  powerC_rating 0.0;
  install_type POLETOP;
  connect_type SINGLE_PHASE_CENTER_TAPPED;
  primary_voltage 7200.0;
  secondary_voltage 120.0;
  resistance 0.00725;
  resistance1 0.01450;
  resistance2 0.01450;
  reactance 0.01320;
  reactance1 0.00660;
  reactance2 0.00660;
  shunt_resistance 212.77;
  shunt_reactance 57.47;
}
object transformer_configuration {
  name XF1_POLETOP_AS_25;
  power_rating 25.00;
  powerA_rating 25.00;
  powerB_rating 0.0;
  powerC_rating 0.0;
  install_type POLETOP;
  connect_type SINGLE_PHASE_CENTER_TAPPED;
  primary_voltage 7200.0;
  secondary_voltage 120.0;
  resistance 0.00800;
  resistance1 0.01600;
  resistance2 0.01600;
  reactance 0.01208;
  reactance1 0.00604;
  reactance2 0.00604;
  shunt_resistance 192.31;
  shunt_reactance 51.81;
}
object transformer_configuration {
  name XF1_POLETOP_AS_15;
  power_rating 15.00;
  powerA_rating 15.00;
  powerB_rating 0.0;
  powerC_rating 0.0;
  install_type POLETOP;
  connect_type SINGLE_PHASE_CENTER_TAPPED;
  primary_voltage 7200.0;
  secondary_voltage 120.0;
  resistance 0.00850;
  resistance1 0.01700;
  resistance2 0.01700;
  reactance 0.01176;
  reactance1 0.00588;
  reactance2 0.00588;
  shunt_resistance 166.67;
  shunt_reactance 39.53;
}
object transformer_configuration {
  name XF1_POLETOP_CS_37p5;
  power_rating 37.50;
  powerA_rating 0.0;
  powerB_rating 0.0;
  powerC_rating 37.50;
  install_type POLETOP;
  connect_type SINGLE_PHASE_CENTER_TAPPED;
  primary_voltage 7200.0;
  secondary_voltage 120.0;
  resistance 0.00725;
  resistance1 0.01450;
  resistance2 0.01450;
  reactance 0.01320;
  reactance1 0.00660;
  reactance2 0.00660;
  shunt_resistance 212.77;
  shunt_reactance 57.47;
}
object transformer_configuration {
  name XF1_PADMOUNT_AN_15;
  power_rating 15.00;
  powerA_rating 15.00;
  powerB_rating 0.0;
  powerC_rating 0.0;
  install_type PADMOUNT;
  connect_type WYE_WYE;
  primary_voltage 12470.0;
  secondary_voltage 208.0;
  resistance 0.01900;
  reactance 0.01770;
  shunt_resistance 126.58;
  shunt_reactance 22.57;
}
object transformer_configuration {
  name XF1_PADMOUNT_BN_75;
  power_rating 75.00;
  powerA_rating 0.0;
  powerB_rating 75.00;
  powerC_rating 0.0;
  install_type PADMOUNT;
  connect_type WYE_WYE;
  primary_voltage 12470.0;
  secondary_voltage 208.0;
  resistance 0.01600;
  reactance 0.02420;
  shunt_resistance 158.73;
  shunt_reactance 30.86;
}
object transformer_configuration {
  name XF1_PADMOUNT_AN_10;
  power_rating 10.00;
  powerA_rating 10.00;
  powerB_rating 0.0;
  powerC_rating 0.0;
  install_type PADMOUNT;
  connect_type WYE_WYE;
  primary_voltage 12470.0;
  secondary_voltage 208.0;
  resistance 0.01900;
  reactance 0.01770;
  shunt_resistance 126.58;
  shunt_reactance 22.57;
}
object transformer_configuration {
  name XF1_PADMOUNT_BN_15;
  power_rating 15.00;
  powerA_rating 0.0;
  powerB_rating 15.00;
  powerC_rating 0.0;
  install_type PADMOUNT;
  connect_type WYE_WYE;
  primary_voltage 12470.0;
  secondary_voltage 208.0;
  resistance 0.01900;
  reactance 0.01770;
  shunt_resistance 126.58;
  shunt_reactance 22.57;
}
object transformer_configuration {
  name XF3_PADMOUNT_ABCN_45;
  power_rating 45.00;
  powerA_rating 15.00;
  powerB_rating 15.00;
  powerC_rating 15.00;
  install_type PADMOUNT;
  connect_type WYE_WYE;
  primary_voltage 12470.0;
  secondary_voltage 208.0;
  resistance 0.01750;
  reactance 0.02120;
  shunt_resistance 142.86;
  shunt_reactance 25.38;
}
object transformer_configuration {
  name XF3_PADMOUNT_ABCN_75;
  power_rating 75.00;
  powerA_rating 25.00;
  powerB_rating 25.00;
  powerC_rating 25.00;
  install_type PADMOUNT;
  connect_type WYE_WYE;
  primary_voltage 12470.0;
  secondary_voltage 208.0;
  resistance 0.01600;
  reactance 0.02420;
  shunt_resistance 158.73;
  shunt_reactance 30.86;
}
object transformer_configuration {
  name XF3_PADMOUNT_ABCN_150;
  power_rating 150.00;
  powerA_rating 50.00;
  powerB_rating 50.00;
  powerC_rating 50.00;
  install_type PADMOUNT;
  connect_type WYE_WYE;
  primary_voltage 12470.0;
  secondary_voltage 480.0;
  resistance 0.01300;
  reactance 0.03250;
  shunt_resistance 185.19;
  shunt_reactance 36.36;
}
object transformer_configuration {
  name XF3_PADMOUNT_ABCN_30;
  power_rating 30.00;
  powerA_rating 10.00;
  powerB_rating 10.00;
  powerC_rating 10.00;
  install_type PADMOUNT;
  connect_type WYE_WYE;
  primary_voltage 12470.0;
  secondary_voltage 208.0;
  resistance 0.01900;
  reactance 0.01770;
  shunt_resistance 126.58;
  shunt_reactance 22.57;
}
object transformer_configuration {
  name XF3_PADMOUNT_ABCN_750;
  power_rating 750.00;
  powerA_rating 250.00;
  powerB_rating 250.00;
  powerC_rating 250.00;
  install_type PADMOUNT;
  connect_type WYE_WYE;
  primary_voltage 12470.0;
  secondary_voltage 480.0;
  resistance 0.00970;
  reactance 0.05110;
  shunt_resistance 227.27;
  shunt_reactance 52.91;
}
object transformer_configuration {
  name XF3_PADMOUNT_ABCN_112p5;
  power_rating 112.50;
  powerA_rating 37.50;
  powerB_rating 37.50;
  powerC_rating 37.50;
  install_type PADMOUNT;
  connect_type WYE_WYE;
  primary_voltage 12470.0;
  secondary_voltage 480.0;
  resistance 0.01450;
  reactance 0.02850;
  shunt_resistance 169.49;
  shunt_reactance 33.44;
}
object transformer_configuration {
  name XF3_PADMOUNT_ABCN_225;
  power_rating 225.00;
  powerA_rating 75.00;
  powerB_rating 75.00;
  powerC_rating 75.00;
  install_type PADMOUNT;
  connect_type WYE_WYE;
  primary_voltage 12470.0;
  secondary_voltage 480.0;
  resistance 0.01300;
  reactance 0.03520;
  shunt_resistance 200.00;
  shunt_reactance 40.00;
}
object transformer_configuration {
  name XF3_POLETOP_ABCN_30;
  power_rating 30.00;
  powerA_rating 10.00;
  powerB_rating 10.00;
  powerC_rating 10.00;
  install_type POLETOP;
  connect_type WYE_WYE;
  primary_voltage 12470.0;
  secondary_voltage 208.0;
  resistance 0.01900;
  reactance 0.01770;
  shunt_resistance 126.58;
  shunt_reactance 22.57;
}
object transformer_configuration {
  name XF3_PADMOUNT_ABCN_500;
  power_rating 500.00;
  powerA_rating 166.67;
  powerB_rating 166.67;
  powerC_rating 166.67;
  install_type PADMOUNT;
  connect_type WYE_WYE;
  primary_voltage 12470.0;
  secondary_voltage 480.0;
  resistance 0.01100;
  reactance 0.04880;
  shunt_resistance 222.22;
  shunt_reactance 44.25;
}
object transformer_configuration {
  name XF3_POLETOP_ABCN_500;
  power_rating 500.00;
  powerA_rating 166.67;
  powerB_rating 166.67;
  powerC_rating 166.67;
  install_type POLETOP;
  connect_type WYE_WYE;
  primary_voltage 12470.0;
  secondary_voltage 480.0;
  resistance 0.01100;
  reactance 0.04880;
  shunt_resistance 222.22;
  shunt_reactance 44.25;
}
object transformer_configuration {
  name XF3_POLETOP_ABCN_112p5;
  power_rating 112.50;
  powerA_rating 37.50;
  powerB_rating 37.50;
  powerC_rating 37.50;
  install_type POLETOP;
  connect_type WYE_WYE;
  primary_voltage 12470.0;
  secondary_voltage 480.0;
  resistance 0.01450;
  reactance 0.02850;
  shunt_resistance 169.49;
  shunt_reactance 33.44;
}
object transformer_configuration {
  name XF3_POLETOP_ABCN_45;
  power_rating 45.00;
  powerA_rating 15.00;
  powerB_rating 15.00;
  powerC_rating 15.00;
  install_type POLETOP;
  connect_type WYE_WYE;
  primary_voltage 12470.0;
  secondary_voltage 208.0;
  resistance 0.01750;
  reactance 0.02120;
  shunt_resistance 142.86;
  shunt_reactance 25.38;
}
object transformer_configuration {
  name XF1_POLETOP_AN_15;
  power_rating 15.00;
  powerA_rating 15.00;
  powerB_rating 0.0;
  powerC_rating 0.0;
  install_type POLETOP;
  connect_type WYE_WYE;
  primary_voltage 12470.0;
  secondary_voltage 208.0;
  resistance 0.01900;
  reactance 0.01770;
  shunt_resistance 126.58;
  shunt_reactance 22.57;
}
object transformer_configuration {
  name XF1_PADMOUNT_AN_25;
  power_rating 25.00;
  powerA_rating 25.00;
  powerB_rating 0.0;
  powerC_rating 0.0;
  install_type PADMOUNT;
  connect_type WYE_WYE;
  primary_voltage 12470.0;
  secondary_voltage 208.0;
  resistance 0.01900;
  reactance 0.01770;
  shunt_resistance 126.58;
  shunt_reactance 22.57;
}
object transformer_configuration {
  name XF1_PADMOUNT_AN_37p5;
  power_rating 37.50;
  powerA_rating 37.50;
  powerB_rating 0.0;
  powerC_rating 0.0;
  install_type PADMOUNT;
  connect_type WYE_WYE;
  primary_voltage 12470.0;
  secondary_voltage 208.0;
  resistance 0.01750;
  reactance 0.02120;
  shunt_resistance 142.86;
  shunt_reactance 25.38;
}
object transformer_configuration {
  name XF1_PADMOUNT_CN_15;
  power_rating 15.00;
  powerA_rating 0.0;
  powerB_rating 0.0;
  powerC_rating 15.00;
  install_type PADMOUNT;
  connect_type WYE_WYE;
  primary_voltage 12470.0;
  secondary_voltage 208.0;
  resistance 0.01900;
  reactance 0.01770;
  shunt_resistance 126.58;
  shunt_reactance 22.57;
}
object transformer_configuration {
  name XF1_PADMOUNT_CN_25;
  power_rating 25.00;
  powerA_rating 0.0;
  powerB_rating 0.0;
  powerC_rating 25.00;
  install_type PADMOUNT;
  connect_type WYE_WYE;
  primary_voltage 12470.0;
  secondary_voltage 208.0;
  resistance 0.01900;
  reactance 0.01770;
  shunt_resistance 126.58;
  shunt_reactance 22.57;
}
object transformer_configuration {
  name XF1_POLETOP_CN_15;
  power_rating 15.00;
  powerA_rating 0.0;
  powerB_rating 0.0;
  powerC_rating 15.00;
  install_type POLETOP;
  connect_type WYE_WYE;
  primary_voltage 12470.0;
  secondary_voltage 208.0;
  resistance 0.01900;
  reactance 0.01770;
  shunt_resistance 126.58;
  shunt_reactance 22.57;
}
object transformer_configuration {
  name XF3_POLETOP_ABCN_75;
  power_rating 75.00;
  powerA_rating 25.00;
  powerB_rating 25.00;
  powerC_rating 25.00;
  install_type POLETOP;
  connect_type WYE_WYE;
  primary_voltage 12470.0;
  secondary_voltage 208.0;
  resistance 0.01600;
  reactance 0.02420;
  shunt_resistance 158.73;
  shunt_reactance 30.86;
}
object transformer_configuration {
  name XF2_POLETOP_ABN_30;
  power_rating 30.00;
  powerA_rating 15.00;
  powerB_rating 15.00;
  powerC_rating 0.0;
  install_type POLETOP;
  connect_type WYE_WYE;
  primary_voltage 12470.0;
  secondary_voltage 208.0;
  resistance 0.01900;
  reactance 0.01770;
  shunt_resistance 126.58;
  shunt_reactance 22.57;
}
object transformer_configuration {
  name XF2_POLETOP_BCN_45;
  power_rating 45.00;
  powerA_rating 0.0;
  powerB_rating 22.50;
  powerC_rating 22.50;
  install_type POLETOP;
  connect_type WYE_WYE;
  primary_voltage 12470.0;
  secondary_voltage 208.0;
  resistance 0.01750;
  reactance 0.02120;
  shunt_resistance 142.86;
  shunt_reactance 25.38;
}
object transformer_configuration {
  name XF1_POLETOP_CN_100;
  power_rating 100.00;
  powerA_rating 0.0;
  powerB_rating 0.0;
  powerC_rating 100.00;
  install_type POLETOP;
  connect_type WYE_WYE;
  primary_voltage 12470.0;
  secondary_voltage 208.0;
  resistance 0.01450;
  reactance 0.02850;
  shunt_resistance 169.49;
  shunt_reactance 33.44;
}
object transformer_configuration {
  name XF3_POLETOP_ABCN_150;
  power_rating 150.00;
  powerA_rating 50.00;
  powerB_rating 50.00;
  powerC_rating 50.00;
  install_type POLETOP;
  connect_type WYE_WYE;
  primary_voltage 12470.0;
  secondary_voltage 480.0;
  resistance 0.01300;
  reactance 0.03250;
  shunt_resistance 185.19;
  shunt_reactance 36.36;
}
object transformer_configuration {
  name XF3_POLETOP_ABCN_225;
  power_rating 225.00;
  powerA_rating 75.00;
  powerB_rating 75.00;
  powerC_rating 75.00;
  install_type POLETOP;
  connect_type WYE_WYE;
  primary_voltage 12470.0;
  secondary_voltage 480.0;
  resistance 0.01300;
  reactance 0.03520;
  shunt_resistance 200.00;
  shunt_reactance 40.00;
}
object transformer_configuration {
  name XF1_POLETOP_AN_50;
  power_rating 50.00;
  powerA_rating 50.00;
  powerB_rating 0.0;
  powerC_rating 0.0;
  install_type POLETOP;
  connect_type WYE_WYE;
  primary_voltage 12470.0;
  secondary_voltage 208.0;
  resistance 0.01600;
  reactance 0.02420;
  shunt_resistance 158.73;
  shunt_reactance 30.86;
}
object transformer_configuration {
  name XF1_PADMOUNT_BN_10;
  power_rating 10.00;
  powerA_rating 0.0;
  powerB_rating 10.00;
  powerC_rating 0.0;
  install_type PADMOUNT;
  connect_type WYE_WYE;
  primary_voltage 12470.0;
  secondary_voltage 208.0;
  resistance 0.01900;
  reactance 0.01770;
  shunt_resistance 126.58;
  shunt_reactance 22.57;
}
object transformer_configuration {
  name XF3_POLETOP_ABCN_1500;
  power_rating 1500.00;
  powerA_rating 500.00;
  powerB_rating 500.00;
  powerC_rating 500.00;
  install_type POLETOP;
  connect_type WYE_WYE;
  primary_voltage 12470.0;
  secondary_voltage 480.0;
  resistance 0.00780;
  reactance 0.05700;
  shunt_resistance 256.41;
  shunt_reactance 66.23;
}
object regulator_configuration {
  name feeder_reg_cfg;
  Control OUTPUT_VOLTAGE;
  band_center 7500.0;
  band_width 120;
  connect_type WYE_WYE;
  time_delay 30;
  raise_taps 16;
  lower_taps 16;
  regulation 0.10;
  tap_pos_A 0;
  tap_pos_B 0;
  tap_pos_C 0;
}
object overhead_line_conductor {
  name ID_932;
  rating.summer.continuous 443.0;
  geometric_mean_radius 0.02270 ft;
  resistance 0.05230;
}
object overhead_line_conductor {
  name ID_933;
  rating.summer.continuous 120.0;
  geometric_mean_radius 0.00700 ft;
  resistance 2.40970;
}
object overhead_line_conductor {
  name ID_934;
  rating.summer.continuous 149.0;
  geometric_mean_radius 0.00663 ft;
  resistance 1.50000;
}
object overhead_line_conductor {
  name ID_935;
  rating.summer.continuous 605.0;
  geometric_mean_radius 0.02920 ft;
  resistance 0.03180;
}
object overhead_line_conductor {
  name ID_936;
  rating.summer.continuous 388.0;
  geometric_mean_radius 0.02020 ft;
  resistance 0.06570;
}
object overhead_line_conductor {
  name ID_937;
  rating.summer.continuous 123.0;
  geometric_mean_radius 0.00437 ft;
  resistance 2.53069;
}
object overhead_line_conductor {
  name ID_938;
  rating.summer.continuous 120.0;
  geometric_mean_radius 0.00756 ft;
  resistance 0.42000;
}
object overhead_line_conductor {
  name ID_939;
  rating.summer.continuous 256.0;
  geometric_mean_radius 0.01200 ft;
  resistance 0.16600;
}
object overhead_line_conductor {
  name ID_940;
  rating.summer.continuous 204.0;
  geometric_mean_radius 0.00836 ft;
  resistance 0.94500;
}
object overhead_line_conductor {
  name ID_941;
  rating.summer.continuous 112.0;
  geometric_mean_radius 0.00526 ft;
  resistance 2.39000;
}
object overhead_line_conductor {
  name ID_942;
  rating.summer.continuous 230.0;
  geometric_mean_radius 0.00446 ft;
  resistance 1.04100;
}
object overhead_line_conductor {
  name ID_943;
  rating.summer.continuous 164.0;
  geometric_mean_radius 0.00883 ft;
  resistance 1.51970;
}
object overhead_line_conductor {
  name ID_944;
  rating.summer.continuous 197.0;
  geometric_mean_radius 0.00883 ft;
  resistance 1.51970;
}
object overhead_line_conductor {
  name ID_945;
  rating.summer.continuous 90.0;
  geometric_mean_radius 0.00599 ft;
  resistance 0.67000;
}
object line_spacing {
  name ID_80;
  distance_AB 3.0 in;
  distance_BC 3.0 in;
  distance_AC 3.0 in;
  distance_AN 2.0 in;
  distance_BN 2.0 in;
  distance_CN 2.0 in;
}
object line_spacing {
  name ID_81;
  distance_BN 2.0 in;
}
object line_spacing {
  name ID_82;
  distance_AB 48.0 in;
  distance_BC 48.0 in;
  distance_AC 48.0 in;
  distance_AN 36.0 in;
  distance_BN 36.0 in;
  distance_CN 36.0 in;
}
object line_spacing {
  name ID_83;
  distance_CN 2.0 in;
}
object line_spacing {
  name ID_84;
  distance_AN 2.0 in;
}
object line_spacing {
  name ID_85;
  distance_BN 36.0 in;
}
object line_spacing {
  name ID_86;
  distance_AN 36.0 in;
}
object line_spacing {
  name ID_87;
  distance_CN 36.0 in;
}
object line_spacing {
  name ID_88;
  distance_AB 48.0 in;
  distance_AN 36.0 in;
  distance_BN 36.0 in;
}
object line_spacing {
  name ID_89;
  distance_BC 48.0 in;
  distance_BN 36.0 in;
  distance_CN 36.0 in;
}
object line_configuration {
  name ID_39;
  conductor_A ID_1825;
  conductor_B ID_1825;
  conductor_C ID_1825;
  conductor_N ID_1825;
  spacing ID_80;
}
object line_configuration {
  name ID_40;
  conductor_B ID_1826;
  conductor_N ID_1826;
  spacing ID_81;
}
object line_configuration {
  name ID_41;
  conductor_A ID_932;
  conductor_B ID_932;
  conductor_C ID_932;
  conductor_N ID_932;
  spacing ID_82;
}
object line_configuration {
  name ID_42;
  conductor_C ID_1826;
  conductor_N ID_1826;
  spacing ID_83;
}
object line_configuration {
  name ID_43;
  conductor_A ID_1826;
  conductor_N ID_1826;
  spacing ID_84;
}
object line_configuration {
  name ID_44;
  conductor_A ID_1826;
  conductor_B ID_1826;
  conductor_C ID_1826;
  conductor_N ID_1826;
  spacing ID_80;
}
object line_configuration {
  name ID_45;
  conductor_B ID_933;
  conductor_N ID_933;
  spacing ID_85;
}
object line_configuration {
  name ID_46;
  conductor_A ID_934;
  conductor_B ID_934;
  conductor_C ID_934;
  conductor_N ID_934;
  spacing ID_82;
}
object line_configuration {
  name ID_47;
  conductor_A ID_934;
  conductor_N ID_934;
  spacing ID_86;
}
object line_configuration {
  name ID_48;
  conductor_A ID_1827;
  conductor_B ID_1827;
  conductor_C ID_1827;
  conductor_N ID_1827;
  spacing ID_80;
}
object line_configuration {
  name ID_49;
  conductor_B ID_934;
  conductor_N ID_934;
  spacing ID_85;
}
object line_configuration {
  name ID_50;
  conductor_A ID_1828;
  conductor_B ID_1828;
  conductor_C ID_1828;
  conductor_N ID_1828;
  spacing ID_82;
}
object line_configuration {
  name ID_51;
  conductor_A ID_933;
  conductor_B ID_933;
  conductor_C ID_933;
  conductor_N ID_933;
  spacing ID_82;
}
object line_configuration {
  name ID_52;
  conductor_A ID_932;
  conductor_N ID_932;
  spacing ID_86;
}
object line_configuration {
  name ID_53;
  conductor_A ID_1829;
  conductor_B ID_1829;
  conductor_C ID_1829;
  conductor_N ID_1829;
  spacing ID_82;
}
object line_configuration {
  name ID_54;
  conductor_A ID_1829;
  conductor_B ID_1829;
  conductor_C ID_1829;
  conductor_N ID_1829;
  spacing ID_80;
}
object line_configuration {
  name ID_55;
  conductor_A ID_935;
  conductor_B ID_935;
  conductor_C ID_935;
  conductor_N ID_935;
  spacing ID_82;
}
object line_configuration {
  name ID_56;
  conductor_A ID_933;
  conductor_N ID_933;
  spacing ID_86;
}
object line_configuration {
  name ID_57;
  conductor_A ID_936;
  conductor_B ID_936;
  conductor_C ID_936;
  conductor_N ID_936;
  spacing ID_82;
}
object line_configuration {
  name ID_58;
  conductor_B ID_937;
  conductor_N ID_937;
  spacing ID_85;
}
object line_configuration {
  name ID_59;
  conductor_C ID_937;
  conductor_N ID_937;
  spacing ID_87;
}
object line_configuration {
  name ID_60;
  conductor_B ID_938;
  conductor_N ID_938;
  spacing ID_85;
}
object line_configuration {
  name ID_61;
  conductor_A ID_937;
  conductor_B ID_937;
  conductor_C ID_937;
  conductor_N ID_937;
  spacing ID_82;
}
object line_configuration {
  name ID_62;
  conductor_A ID_934;
  conductor_B ID_934;
  conductor_C ID_934;
  conductor_N ID_934;
  spacing ID_82;
}
object line_configuration {
  name ID_63;
  conductor_B ID_935;
  conductor_N ID_935;
  spacing ID_85;
}
object line_configuration {
  name ID_64;
  conductor_A ID_939;
  conductor_B ID_939;
  conductor_C ID_939;
  conductor_N ID_939;
  spacing ID_82;
}
object line_configuration {
  name ID_65;
  conductor_A ID_933;
  conductor_B ID_933;
  conductor_N ID_933;
  spacing ID_88;
}
object line_configuration {
  name ID_66;
  conductor_A ID_940;
  conductor_B ID_940;
  conductor_C ID_940;
  conductor_N ID_940;
  spacing ID_82;
}
object line_configuration {
  name ID_67;
  conductor_A ID_1828;
  conductor_B ID_1828;
  conductor_C ID_1828;
  conductor_N ID_1828;
  spacing ID_80;
}
object line_configuration {
  name ID_68;
  conductor_A ID_1829;
  conductor_N ID_1829;
  spacing ID_84;
}
object line_configuration {
  name ID_69;
  conductor_A ID_938;
  conductor_N ID_938;
  spacing ID_86;
}
object line_configuration {
  name ID_70;
  conductor_A ID_938;
  conductor_B ID_938;
  conductor_C ID_938;
  conductor_N ID_938;
  spacing ID_82;
}
object line_configuration {
  name ID_71;
  conductor_C ID_941;
  conductor_N ID_941;
  spacing ID_87;
}
object line_configuration {
  name ID_72;
  conductor_C ID_934;
  conductor_N ID_934;
  spacing ID_87;
}
object line_configuration {
  name ID_73;
  conductor_A ID_940;
  conductor_B ID_940;
  conductor_C ID_940;
  conductor_N ID_940;
  spacing ID_82;
}
object line_configuration {
  name ID_74;
  conductor_A ID_934;
  conductor_B ID_934;
  conductor_C ID_934;
  conductor_N ID_934;
  spacing ID_82;
}
object line_configuration {
  name ID_75;
  conductor_A ID_942;
  conductor_B ID_942;
  conductor_C ID_942;
  conductor_N ID_942;
  spacing ID_82;
}
object line_configuration {
  name ID_76;
  conductor_B ID_933;
  conductor_C ID_933;
  conductor_N ID_933;
  spacing ID_89;
}
object line_configuration {
  name ID_77;
  conductor_A ID_939;
  conductor_B ID_939;
  conductor_N ID_939;
  spacing ID_88;
}
object line_configuration {
  name ID_78;
  conductor_A ID_933;
  conductor_B ID_933;
  conductor_C ID_933;
  conductor_N ID_933;
  spacing ID_82;
}
object line_configuration {
  name ID_79;
  conductor_A ID_933;
  conductor_B ID_933;
  conductor_C ID_933;
  conductor_N ID_933;
  spacing ID_82;
}
object triplex_line_conductor {
  name triplex_4/0_aa;
  resistance 0.48;
  geometric_mean_radius 0.0158;
  rating.summer.continuous 1000.0;
  rating.summer.emergency 1000.0;
  rating.winter.continuous 1000.0;
  rating.winter.emergency 1000.0;
}
object triplex_line_configuration {
  name ID_1239;
  conductor_1 triplex_4/0_aa;
  conductor_2 triplex_4/0_aa;
  conductor_N triplex_4/0_aa;
  insulation_thickness 0.08;
  diameter 0.522;
}
object underground_line_conductor {
  name ID_1825;
  rating.summer.continuous 425.0;
  outer_diameter 1.96;
  conductor_gmr 0.0321 ft;
  conductor_diameter 0.998;
  conductor_resistance 0.122496;
  neutral_gmr 0.00330 ft;
  neutral_resistance 5.9026;
  neutral_diameter 0.1019;
  neutral_strands 15.0;
  insulation_relative_permitivitty 2.3;
}
object underground_line_conductor {
  name ID_1826;
  rating.summer.continuous 112.0;
  outer_diameter 1.09;
  conductor_gmr 0.0088 ft;
  conductor_diameter 0.292;
  conductor_resistance 1.38336;
  neutral_gmr 0.00208 ft;
  neutral_resistance 14.87;
  neutral_diameter 0.0641;
  neutral_strands 6.0;
  insulation_relative_permitivitty 2.3;
}
object underground_line_conductor {
  name ID_1827;
  rating.summer.continuous 488.0;
  outer_diameter 2.15;
  conductor_gmr 0.0371 ft;
  conductor_diameter 1.152;
  conductor_resistance 0.091872;
  neutral_gmr 0.00330 ft;
  neutral_resistance 5.9026;
  neutral_diameter 0.1019;
  neutral_strands 20.0;
  insulation_relative_permitivitty 2.3;
}
object underground_line_conductor {
  name ID_1828;
  rating.summer.continuous 214.0;
  outer_diameter 1.32;
  conductor_gmr 0.0177 ft;
  conductor_diameter 0.528;
  conductor_resistance 0.433488;
  neutral_gmr 0.00208 ft;
  neutral_resistance 14.87;
  neutral_diameter 0.0641;
  neutral_strands 11.0;
  insulation_relative_permitivitty 2.3;
}
object underground_line_conductor {
  name ID_1829;
  rating.summer.continuous 142.0;
  outer_diameter 1.27;
  conductor_gmr 0.01142 ft;
  conductor_diameter 0.362;
  conductor_resistance 0.88704;
  neutral_gmr 0.00208 ft;
  neutral_resistance 14.87;
  neutral_diameter 0.0641;
  neutral_strands 16.0;
  insulation_relative_permitivitty 2.3;
}
object fuse {
  name R2_12_47_1_fuse_1;
  phases CN;
  from R2_12_47_1_node_426;
  to R2_12_47_1_node_483;
  current_limit 50000;
  status CLOSED;
  mean_replacement_time 3600;
}
object fuse {
  name R2_12_47_1_fuse_2;
// downstream 20.19 kva on ABCS
  phases ABCN;
  from R2_12_47_1_node_470;
  to R2_12_47_1_node_471;
  current_limit 40;
  status CLOSED;
  mean_replacement_time 3600;
}
object fuse {
  name R2_12_47_1_fuse_3;
  phases ABCN;
  from R2_12_47_1_node_237;
  to R2_12_47_1_node_238;
  current_limit 50000;
  status CLOSED;
  mean_replacement_time 3600;
}
object fuse {
  name R2_12_47_1_fuse_4;
// downstream 551.67 kva on ABCS
  phases ABCN;
  from R2_12_47_1_node_249;
  to R2_12_47_1_node_269;
  current_limit 65;
  status CLOSED;
  mean_replacement_time 3600;
}
object fuse {
  name R2_12_47_1_fuse_5;
  phases AN;
  from R2_12_47_1_node_270;
  to R2_12_47_1_node_271;
  current_limit 50000;
  status CLOSED;
  mean_replacement_time 3600;
}
object fuse {
  name R2_12_47_1_fuse_6;
// downstream 59.56 kva on BS
  phases BN;
  from R2_12_47_1_node_373;
  to R2_12_47_1_node_368;
  current_limit 40;
  status CLOSED;
  mean_replacement_time 3600;
}
object fuse {
  name R2_12_47_1_fuse_7;
// downstream 110.81 kva on AS
  phases ABCN;
  from R2_12_47_1_node_349;
  to R2_12_47_1_node_351;
  current_limit 40;
  status CLOSED;
  mean_replacement_time 3600;
}
object fuse {
  name R2_12_47_1_fuse_8;
// downstream 36.94 kva on AS
  phases AN;
  from R2_12_47_1_node_379;
  to R2_12_47_1_node_264;
  current_limit 40;
  status CLOSED;
  mean_replacement_time 3600;
}
object fuse {
  name R2_12_47_1_fuse_9;
// downstream 14.19 kva on CS
  phases ABCN;
  from R2_12_47_1_node_350;
  to R2_12_47_1_node_346;
  current_limit 40;
  status CLOSED;
  mean_replacement_time 3600;
}
object fuse {
  name R2_12_47_1_fuse_10;
// downstream 267.19 kva on BS
  phases ABCN;
  from R2_12_47_1_node_352;
  to R2_12_47_1_node_354;
  current_limit 100;
  status CLOSED;
  mean_replacement_time 3600;
}
object fuse {
  name R2_12_47_1_fuse_11;
// downstream 27.70 kva on AS
  phases AN;
  from R2_12_47_1_node_335;
  to R2_12_47_1_node_336;
  current_limit 40;
  status CLOSED;
  mean_replacement_time 3600;
}
object fuse {
  name R2_12_47_1_fuse_12;
// downstream 83.11 kva on AS
  phases AN;
  from R2_12_47_1_node_353;
  to R2_12_47_1_node_347;
  current_limit 40;
  status CLOSED;
  mean_replacement_time 3600;
}
object fuse {
  name R2_12_47_1_fuse_13;
// downstream 8.51 kva on BS
  phases BN;
  from R2_12_47_1_node_389;
  to R2_12_47_1_node_390;
  current_limit 40;
  status CLOSED;
  mean_replacement_time 3600;
}
object fuse {
  name R2_12_47_1_fuse_14;
// downstream 25.53 kva on BS
  phases BN;
  from R2_12_47_1_node_394;
  to R2_12_47_1_node_393;
  current_limit 40;
  status CLOSED;
  mean_replacement_time 3600;
}
object fuse {
  name R2_12_47_1_fuse_15;
// downstream 17.02 kva on BS
  phases BN;
  from R2_12_47_1_node_369;
  to R2_12_47_1_node_367;
  current_limit 40;
  status CLOSED;
  mean_replacement_time 3600;
}
object fuse {
  name R2_12_47_1_fuse_16;
// downstream 34.04 kva on BS
  phases BN;
  from R2_12_47_1_node_408;
  to R2_12_47_1_node_409;
  current_limit 40;
  status CLOSED;
  mean_replacement_time 3600;
}
object fuse {
  name R2_12_47_1_fuse_17;
  phases BN;
  from R2_12_47_1_node_378;
  to R2_12_47_1_node_268;
  current_limit 50000;
  status CLOSED;
  mean_replacement_time 3600;
}
object fuse {
  name R2_12_47_1_fuse_18;
// downstream 107.30 kva on ABCS
  phases ABCN;
  from R2_12_47_1_node_267;
  to R2_12_47_1_node_405;
  current_limit 40;
  status CLOSED;
  mean_replacement_time 3600;
}
object fuse {
  name R2_12_47_1_fuse_19;
// downstream 27.21 kva on ABC
  phases ABCN;
  from R2_12_47_1_node_28;
  to R2_12_47_1_node_281;
  current_limit 40;
  status CLOSED;
  mean_replacement_time 3600;
}
object fuse {
  name R2_12_47_1_fuse_20;
// downstream 544.13 kva on ABC
  phases ABCN;
  from R2_12_47_1_node_285;
  to R2_12_47_1_node_286;
  current_limit 65;
  status CLOSED;
  mean_replacement_time 3600;
}
object fuse {
  name R2_12_47_1_fuse_21;
// downstream 81.62 kva on ABC
  phases ABCN;
  from R2_12_47_1_node_32;
  to R2_12_47_1_node_291;
  current_limit 40;
  status CLOSED;
  mean_replacement_time 3600;
}
object fuse {
  name R2_12_47_1_fuse_22;
// downstream 9.23 kva on A
  phases AN;
  from R2_12_47_1_node_302;
  to R2_12_47_1_node_304;
  current_limit 40;
  status CLOSED;
  mean_replacement_time 3600;
}
object fuse {
  name R2_12_47_1_fuse_23;
// downstream 46.17 kva on A
  phases AN;
  from R2_12_47_1_node_13;
  to R2_12_47_1_node_12;
  current_limit 40;
  status CLOSED;
  mean_replacement_time 3600;
}
object fuse {
  name R2_12_47_1_fuse_24;
// downstream 108.83 kva on ABC
  phases ABCN;
  from R2_12_47_1_node_25;
  to R2_12_47_1_node_24;
  current_limit 40;
  status CLOSED;
  mean_replacement_time 3600;
}
object fuse {
  name R2_12_47_1_fuse_25;
// downstream 28.39 kva on C
  phases ABCN;
  from R2_12_47_1_node_33;
  to R2_12_47_1_node_34;
  current_limit 40;
  status CLOSED;
  mean_replacement_time 3600;
}
object fuse {
  name R2_12_47_1_fuse_26;
// downstream 151.41 kva on CS
  phases ABCN;
  from R2_12_47_1_node_129;
  to R2_12_47_1_node_132;
  current_limit 65;
  status CLOSED;
  mean_replacement_time 3600;
}
object fuse {
  name R2_12_47_1_fuse_27;
// downstream 27.21 kva on ABC
  phases ABCN;
  from R2_12_47_1_node_178;
  to R2_12_47_1_node_172;
  current_limit 40;
  status CLOSED;
  mean_replacement_time 3600;
}
object fuse {
  name R2_12_47_1_fuse_28;
// downstream 417.83 kva on ABC
  phases ABCN;
  from R2_12_47_1_node_178;
  to R2_12_47_1_node_171;
  current_limit 65;
  status CLOSED;
  mean_replacement_time 3600;
}
object fuse {
  name R2_12_47_1_fuse_29;
// downstream 566.53 kva on ABCS
  phases ABCN;
  from R2_12_47_1_node_278;
  to R2_12_47_1_node_176;
  current_limit 100;
  status CLOSED;
  mean_replacement_time 3600;
}
object fuse {
  name R2_12_47_1_fuse_30;
// downstream 78.01 kva on ABC
  phases ABCN;
  from R2_12_47_1_node_222;
  to R2_12_47_1_node_224;
  current_limit 40;
  status CLOSED;
  mean_replacement_time 3600;
}
object fuse {
  name R2_12_47_1_fuse_31;
// downstream 27.21 kva on ABC
  phases ABCN;
  from R2_12_47_1_node_137;
  to R2_12_47_1_node_233;
  current_limit 40;
  status CLOSED;
  mean_replacement_time 3600;
}
object fuse {
  name R2_12_47_1_fuse_32;
// downstream 43.53 kva on ABC
  phases ABCN;
  from R2_12_47_1_node_444;
  to R2_12_47_1_node_446;
  current_limit 40;
  status CLOSED;
  mean_replacement_time 3600;
}
object fuse {
  name R2_12_47_1_fuse_33;
// downstream 651.31 kva on ABC
  phases ABCN;
  from R2_12_47_1_node_454;
  to R2_12_47_1_node_455;
  current_limit 100;
  status CLOSED;
  mean_replacement_time 3600;
}
object fuse {
  name R2_12_47_1_fuse_34;
// downstream 655.11 kva on ABC
  phases ABCN;
  from R2_12_47_1_node_439;
  to R2_12_47_1_node_460;
  current_limit 100;
  status CLOSED;
  mean_replacement_time 3600;
}
object fuse {
  name R2_12_47_1_fuse_35;
// downstream 906.88 kva on ABC
  phases ABCN;
  from R2_12_47_1_node_463;
  to R2_12_47_1_node_464;
  current_limit 200;
  status CLOSED;
  mean_replacement_time 3600;
}
object switch {
  name R2_12_47_1_switch_1;
// downstream 51.05 kva on BS
  phases BN;
  from R2_12_47_1_node_112;
  to R2_12_47_1_node_418;
  status CLOSED;
}
object switch {
  name R2_12_47_1_switch_2;
  phases BN;
  from R2_12_47_1_node_119;
  to R2_12_47_1_node_422;
  status CLOSED;
}
object switch {
  name R2_12_47_1_switch_3;
// downstream 70.97 kva on CS
  phases CN;
  from R2_12_47_1_node_430;
  to R2_12_47_1_node_431;
  status CLOSED;
}
object switch {
  name R2_12_47_1_switch_4;
// downstream 2277.02 kva on ABCS
  phases ABCN;
  from R2_12_47_1_node_158;
  to R2_12_47_1_node_436;
  status CLOSED;
}
object switch {
  name R2_12_47_1_switch_5;
  phases ABCN;
  from R2_12_47_1_node_473;
  to R2_12_47_1_node_469;
  status CLOSED;
}
object switch {
  name R2_12_47_1_switch_6;
  phases ABCN;
  from R2_12_47_1_node_474;
  to R2_12_47_1_node_475;
  status CLOSED;
}
object switch {
  name R2_12_47_1_switch_7;
  phases ABCN;
  from R2_12_47_1_node_245;
  to R2_12_47_1_node_244;
  status CLOSED;
}
object switch {
  name R2_12_47_1_switch_8;
// downstream 6513.45 kva on ABCS
  phases ABCN;
  from R2_12_47_1_node_250;
  to R2_12_47_1_node_247;
  status CLOSED;
}
object switch {
  name R2_12_47_1_switch_9;
  phases ABCN;
  from R2_12_47_1_node_248;
  to R2_12_47_1_node_251;
  status CLOSED;
}
object switch {
  name R2_12_47_1_switch_10;
// downstream 5961.78 kva on ABCS
  phases ABCN;
  from R2_12_47_1_node_252;
  to R2_12_47_1_node_257;
  status CLOSED;
}
object switch {
  name R2_12_47_1_switch_11;
// downstream 5961.78 kva on ABCS
  phases ABCN;
  from R2_12_47_1_node_255;
  to R2_12_47_1_node_348;
  status CLOSED;
}
object switch {
  name R2_12_47_1_switch_12;
  phases ABCN;
  from R2_12_47_1_node_166;
  to R2_12_47_1_node_485;
  status CLOSED;
}
object switch {
  name R2_12_47_1_switch_13;
  phases AN;
  from R2_12_47_1_node_271;
  to R2_12_47_1_node_484;
  status CLOSED;
}
object switch {
  name R2_12_47_1_switch_14;
// downstream 5450.06 kva on ABCS
  phases ABCN;
  from R2_12_47_1_node_261;
  to R2_12_47_1_node_295;
  status CLOSED;
}
object switch {
  name R2_12_47_1_switch_15;
  phases ABCN;
  from R2_12_47_1_node_328;
  to R2_12_47_1_node_327;
  status CLOSED;
}
object switch {
  name R2_12_47_1_switch_16;
// downstream 5450.06 kva on ABCS
  phases ABCN;
  from R2_12_47_1_node_330;
  to R2_12_47_1_node_331;
  status CLOSED;
}
object switch {
  name R2_12_47_1_switch_17;
  phases ABCN;
  from R2_12_47_1_node_398;
  to R2_12_47_1_node_305;
  status CLOSED;
}
object switch {
  name R2_12_47_1_switch_18;
  phases ABCN;
  from R2_12_47_1_node_262;
  to R2_12_47_1_node_217;
  status CLOSED;
}
object switch {
  name R2_12_47_1_switch_19;
// downstream 5450.06 kva on ABCS
  phases ABCN;
  from R2_12_47_1_node_294;
  to R2_12_47_1_node_296;
  status CLOSED;
}
object switch {
  name R2_12_47_1_switch_20;
// downstream 3163.80 kva on ABCS
  phases ABCN;
  from R2_12_47_1_node_273;
  to R2_12_47_1_node_279;
  status CLOSED;
}
object switch {
  name R2_12_47_1_switch_21;
// downstream 2152.24 kva on ABCS
  phases ABCN;
  from R2_12_47_1_node_275;
  to R2_12_47_1_node_274;
  status CLOSED;
}
object switch {
  name R2_12_47_1_switch_22;
  phases ABCN;
  from R2_12_47_1_node_2;
  to R2_12_47_1_node_1;
  status CLOSED;
}
object switch {
  name R2_12_47_1_switch_23;
  phases ABCN;
  from R2_12_47_1_node_56;
  to R2_12_47_1_node_55;
  status CLOSED;
}
object switch {
  name R2_12_47_1_switch_24;
// downstream 2.59 kva on AS
  phases AN;
  from R2_12_47_1_node_205;
  to R2_12_47_1_node_209;
  status CLOSED;
}
object switch {
  name R2_12_47_1_switch_25;
// downstream 2597.27 kva on ABCS
  phases ABCN;
  from R2_12_47_1_node_278;
  to R2_12_47_1_node_277;
  status CLOSED;
}
object switch {
  name R2_12_47_1_switch_26;
// downstream 2597.27 kva on ABCS
  phases ABCN;
  from R2_12_47_1_node_173;
  to R2_12_47_1_node_174;
  status CLOSED;
}
object switch {
  name R2_12_47_1_switch_27;
// downstream 2152.24 kva on ABCS
  phases ABCN;
  from R2_12_47_1_node_185;
  to R2_12_47_1_node_186;
  status CLOSED;
}
object switch {
  name R2_12_47_1_switch_28;
// downstream 5440.82 kva on ABCS
  phases ABCN;
  from R2_12_47_1_node_153;
  to R2_12_47_1_node_154;
  status CLOSED;
}
object switch {
  name R2_12_47_1_switch_29;
// downstream 3163.80 kva on ABCS
  phases ABCN;
  from R2_12_47_1_node_298;
  to R2_12_47_1_node_278;
  status CLOSED;
}
object switch {
  name R2_12_47_1_switch_30;
// downstream 2277.02 kva on ABCS
  phases ABCN;
  from R2_12_47_1_node_438;
  to R2_12_47_1_node_439;
  status CLOSED;
}
object switch {
  name R2_12_47_1_switch_31;
// downstream 63.72 kva on ABCS
  phases ABCN;
  from R2_12_47_1_node_439;
  to R2_12_47_1_node_440;
  status CLOSED;
}
object switch {
  name R2_12_47_1_switch_32;
// downstream 1558.19 kva on ABC
  phases ABCN;
  from R2_12_47_1_node_439;
  to R2_12_47_1_node_441;
  status CLOSED;
}
object switch {
  name R2_12_47_1_switch_33;
// downstream 63.72 kva on ABCS
  phases ABCN;
  from R2_12_47_1_node_442;
  to R2_12_47_1_node_444;
  status CLOSED;
}
object switch {
  name R2_12_47_1_switch_34;
// downstream 20.19 kva on ABCS
  phases ABCN;
  from R2_12_47_1_node_444;
  to R2_12_47_1_node_445;
  status CLOSED;
}
object switch {
  name R2_12_47_1_switch_35;
// downstream 1558.19 kva on ABC
  phases ABCN;
  from R2_12_47_1_node_450;
  to R2_12_47_1_node_463;
  status CLOSED;
}
object switch {
  name R2_12_47_1_switch_36;
  phases ABCN;
  from R2_12_47_1_node_454;
  to R2_12_47_1_node_451;
  status CLOSED;
}
object switch {
  name R2_12_47_1_switch_37;
  phases ABCN;
  from R2_12_47_1_node_456;
  to R2_12_47_1_node_449;
  status CLOSED;
}
object switch {
  name R2_12_47_1_switch_38;
  phases ABCN;
  from R2_12_47_1_node_460;
  to R2_12_47_1_node_465;
  status CLOSED;
}
object switch {
  name R2_12_47_1_switch_39;
// downstream 20.19 kva on ABCS
  phases ABCN;
  from R2_12_47_1_node_447;
  to R2_12_47_1_node_474;
  status CLOSED;
}
object switch {
  name R2_12_47_1_switch_40;
  phases ABCN;
  from R2_12_47_1_node_478;
  to R2_12_47_1_node_479;
  status CLOSED;
}
object recloser {
  name R2_12_47_1_recloser_1;
// downstream 2148.45 kva on ABCS
  phases ABCN;
  from R2_12_47_1_node_117;
  to R2_12_47_1_node_118;
  status CLOSED;
  operating_mode INDIVIDUAL;
  phase_A_state CLOSED;
  phase_B_state CLOSED;
  phase_C_state CLOSED;
  retry_time 1.0 s;
  max_number_of_tries 3;
  number_of_tries 0;
}
object overhead_line {
  name R2_12_47_1_ol_1;
// downstream 2148.45 kva on ABCS
  phases ABCN;
  from R2_12_47_1_node_425;
  to R2_12_47_1_node_117;
  length 168.335;
  configuration ID_41;
}
object overhead_line {
  name R2_12_47_1_ol_2;
// downstream 8.51 kva on B
  phases BN;
  from R2_12_47_1_node_21;
  to R2_12_47_1_node_476;
  length 402.100;
  configuration ID_45;
}
object overhead_line {
  name R2_12_47_1_ol_3;
// downstream 54.41 kva on ABC
  phases ABCN;
  from R2_12_47_1_node_41;
  to R2_12_47_1_node_480;
  length 48.100;
  configuration ID_46;
}
object overhead_line {
  name R2_12_47_1_ol_4;
// downstream 9.23 kva on AS
  phases AN;
  from R2_12_47_1_node_330;
  to R2_12_47_1_node_236;
  length 177.012;
  configuration ID_47;
}
object overhead_line {
  name R2_12_47_1_ol_5;
// downstream 139.55 kva on BS
  phases BN;
  from R2_12_47_1_node_258;
  to R2_12_47_1_node_373;
  length 330.172;
  configuration ID_49;
}
object overhead_line {
  name R2_12_47_1_ol_6;
  phases AN;
  from R2_12_47_1_node_7;
  to R2_12_47_1_node_270;
  length 19.374;
  configuration ID_52;
}
object overhead_line {
  name R2_12_47_1_ol_7;
// downstream 7.92 kva on ABCS
  phases ABCN;
  from R2_12_47_1_node_329;
  to R2_12_47_1_node_328;
  length 60.100;
  configuration ID_55;
}
object overhead_line {
  name R2_12_47_1_ol_8;
// downstream 5459.29 kva on ABCS
  phases ABCN;
  from R2_12_47_1_node_329;
  to R2_12_47_1_node_330;
  length 128.200;
  configuration ID_55;
}
object overhead_line {
  name R2_12_47_1_ol_9;
// downstream 46.17 kva on AS
  phases AN;
  from R2_12_47_1_node_345;
  to R2_12_47_1_node_340;
  length 195.685;
  configuration ID_47;
}
object overhead_line {
  name R2_12_47_1_ol_10;
// downstream 83.11 kva on AS
  phases AN;
  from R2_12_47_1_node_347;
  to R2_12_47_1_node_345;
  length 191.003;
  configuration ID_47;
}
object overhead_line {
  name R2_12_47_1_ol_11;
// downstream 46.17 kva on AS
  phases AN;
  from R2_12_47_1_node_340;
  to R2_12_47_1_node_335;
  length 148.654;
  configuration ID_47;
}
object overhead_line {
  name R2_12_47_1_ol_12;
// downstream 9.23 kva on AS
  phases AN;
  from R2_12_47_1_node_345;
  to R2_12_47_1_node_343;
  length 110.711;
  configuration ID_47;
}
object overhead_line {
  name R2_12_47_1_ol_13;
// downstream 110.81 kva on AS
  phases AN;
  from R2_12_47_1_node_351;
  to R2_12_47_1_node_358;
  length 104.532;
  configuration ID_56;
}
object overhead_line {
  name R2_12_47_1_ol_14;
// downstream 92.34 kva on AS
  phases AN;
  from R2_12_47_1_node_358;
  to R2_12_47_1_node_359;
  length 197.030;
  configuration ID_56;
}
object overhead_line {
  name R2_12_47_1_ol_15;
// downstream 55.41 kva on AS
  phases AN;
  from R2_12_47_1_node_376;
  to R2_12_47_1_node_379;
  length 129.627;
  configuration ID_56;
}
object overhead_line {
  name R2_12_47_1_ol_16;
// downstream 55.41 kva on AS
  phases AN;
  from R2_12_47_1_node_372;
  to R2_12_47_1_node_376;
  length 27.722;
  configuration ID_47;
}
object overhead_line {
  name R2_12_47_1_ol_17;
// downstream 9.23 kva on AS
  phases AN;
  from R2_12_47_1_node_343;
  to R2_12_47_1_node_344;
  length 46.474;
  configuration ID_47;
}
object overhead_line {
  name R2_12_47_1_ol_18;
// downstream 5961.78 kva on ABCS
  phases ABCN;
  from R2_12_47_1_node_348;
  to R2_12_47_1_node_349;
  length 91.600;
  configuration ID_57;
}
object overhead_line {
  name R2_12_47_1_ol_19;
// downstream 5841.99 kva on ABCS
  phases ABCN;
  from R2_12_47_1_node_349;
  to R2_12_47_1_node_350;
  length 204.944;
  configuration ID_57;
}
object overhead_line {
  name R2_12_47_1_ol_20;
// downstream 5827.80 kva on ABCS
  phases ABCN;
  from R2_12_47_1_node_350;
  to R2_12_47_1_node_352;
  length 139.738;
  configuration ID_57;
}
object overhead_line {
  name R2_12_47_1_ol_21;
// downstream 5560.61 kva on ABCS
  phases ABCN;
  from R2_12_47_1_node_352;
  to R2_12_47_1_node_353;
  length 129.692;
  configuration ID_57;
}
object overhead_line {
  name R2_12_47_1_ol_22;
// downstream 5477.50 kva on ABCS
  phases ABCN;
  from R2_12_47_1_node_355;
  to R2_12_47_1_node_356;
  length 166.721;
  configuration ID_57;
}
object overhead_line {
  name R2_12_47_1_ol_23;
// downstream 5467.21 kva on ABCS
  phases ABCN;
  from R2_12_47_1_node_356;
  to R2_12_47_1_node_357;
  length 257.586;
  configuration ID_57;
}
object overhead_line {
  name R2_12_47_1_ol_24;
// downstream 18.47 kva on AS
  phases AN;
  from R2_12_47_1_node_345;
  to R2_12_47_1_node_290;
  length 167.393;
  configuration ID_47;
}
object overhead_line {
  name R2_12_47_1_ol_25;
// downstream 18.47 kva on AS
  phases AN;
  from R2_12_47_1_node_335;
  to R2_12_47_1_node_337;
  length 158.926;
  configuration ID_47;
}
object overhead_line {
  name R2_12_47_1_ol_26;
  phases BN;
  from R2_12_47_1_node_235;
  to R2_12_47_1_node_378;
  length 180.291;
  configuration ID_49;
}
object overhead_line {
  name R2_12_47_1_ol_27;
  phases BN;
  from R2_12_47_1_node_258;
  to R2_12_47_1_node_235;
  length 344.088;
  configuration ID_49;
}
object overhead_line {
  name R2_12_47_1_ol_28;
// downstream 71.48 kva on BS
  phases BN;
  from R2_12_47_1_node_373;
  to R2_12_47_1_node_380;
  length 330.469;
  configuration ID_49;
}
object overhead_line {
  name R2_12_47_1_ol_29;
// downstream 55.41 kva on AS
  phases AN;
  from R2_12_47_1_node_371;
  to R2_12_47_1_node_372;
  length 147.226;
  configuration ID_56;
}
object overhead_line {
  name R2_12_47_1_ol_30;
  phases AN;
  from R2_12_47_1_node_372;
  to R2_12_47_1_node_377;
  length 7.944;
  configuration ID_56;
}
object overhead_line {
  name R2_12_47_1_ol_31;
  phases AN;
  from R2_12_47_1_node_376;
  to R2_12_47_1_node_413;
  length 7.729;
  configuration ID_56;
}
object overhead_line {
  name R2_12_47_1_ol_32;
// downstream 73.88 kva on AS
  phases AN;
  from R2_12_47_1_node_359;
  to R2_12_47_1_node_371;
  length 204.031;
  configuration ID_56;
}
object overhead_line {
  name R2_12_47_1_ol_33;
// downstream 233.15 kva on BS
  phases BN;
  from R2_12_47_1_node_366;
  to R2_12_47_1_node_370;
  length 192.608;
  configuration ID_49;
}
object overhead_line {
  name R2_12_47_1_ol_34;
// downstream 250.17 kva on BS
  phases BN;
  from R2_12_47_1_node_360;
  to R2_12_47_1_node_366;
  length 199.600;
  configuration ID_49;
}
object overhead_line {
  name R2_12_47_1_ol_35;
// downstream 267.19 kva on BS
  phases BN;
  from R2_12_47_1_node_354;
  to R2_12_47_1_node_360;
  length 101.076;
  configuration ID_49;
}
object overhead_line {
  name R2_12_47_1_ol_36;
// downstream 85.09 kva on BS
  phases BN;
  from R2_12_47_1_node_258;
  to R2_12_47_1_node_382;
  length 102.705;
  configuration ID_45;
}
object overhead_line {
  name R2_12_47_1_ol_37;
// downstream 224.64 kva on BS
  phases BN;
  from R2_12_47_1_node_370;
  to R2_12_47_1_node_258;
  length 167.453;
  configuration ID_49;
}
object overhead_line {
  name R2_12_47_1_ol_38;
// downstream 68.07 kva on BS
  phases BN;
  from R2_12_47_1_node_382;
  to R2_12_47_1_node_385;
  length 196.301;
  configuration ID_45;
}
object overhead_line {
  name R2_12_47_1_ol_39;
// downstream 51.05 kva on BS
  phases BN;
  from R2_12_47_1_node_385;
  to R2_12_47_1_node_386;
  length 203.312;
  configuration ID_49;
}
object overhead_line {
  name R2_12_47_1_ol_40;
// downstream 34.04 kva on BS
  phases BN;
  from R2_12_47_1_node_386;
  to R2_12_47_1_node_392;
  length 109.473;
  configuration ID_49;
}
object overhead_line {
  name R2_12_47_1_ol_41;
  phases BN;
  from R2_12_47_1_node_396;
  to R2_12_47_1_node_395;
  length 247.034;
  configuration ID_45;
}
object overhead_line {
  name R2_12_47_1_ol_42;
// downstream 8.51 kva on BS
  phases BN;
  from R2_12_47_1_node_392;
  to R2_12_47_1_node_396;
  length 107.250;
  configuration ID_49;
}
object overhead_line {
  name R2_12_47_1_ol_43;
// downstream 25.53 kva on BS
  phases BN;
  from R2_12_47_1_node_392;
  to R2_12_47_1_node_394;
  length 192.338;
  configuration ID_49;
}
object overhead_line {
  name R2_12_47_1_ol_44;
// downstream 8.51 kva on BS
  phases BN;
  from R2_12_47_1_node_390;
  to R2_12_47_1_node_384;
  length 179.838;
  configuration ID_45;
}
object overhead_line {
  name R2_12_47_1_ol_45;
// downstream 5477.50 kva on ABCS
  phases ABCN;
  from R2_12_47_1_node_353;
  to R2_12_47_1_node_355;
  length 205.105;
  configuration ID_57;
}
object overhead_line {
  name R2_12_47_1_ol_46;
// downstream 25.53 kva on BS
  phases BN;
  from R2_12_47_1_node_365;
  to R2_12_47_1_node_363;
  length 181.772;
  configuration ID_49;
}
object overhead_line {
  name R2_12_47_1_ol_47;
// downstream 42.55 kva on BS
  phases BN;
  from R2_12_47_1_node_368;
  to R2_12_47_1_node_365;
  length 183.283;
  configuration ID_49;
}
object overhead_line {
  name R2_12_47_1_ol_48;
// downstream 8.51 kva on BS
  phases BN;
  from R2_12_47_1_node_363;
  to R2_12_47_1_node_364;
  length 172.000;
  configuration ID_58;
}
object overhead_line {
  name R2_12_47_1_ol_49;
// downstream 17.02 kva on BS
  phases BN;
  from R2_12_47_1_node_382;
  to R2_12_47_1_node_381;
  length 19.881;
  configuration ID_45;
}
object overhead_line {
  name R2_12_47_1_ol_50;
// downstream 14.19 kva on CS
  phases CN;
  from R2_12_47_1_node_342;
  to R2_12_47_1_node_341;
  length 120.441;
  configuration ID_59;
}
object overhead_line {
  name R2_12_47_1_ol_51;
  phases CN;
  from R2_12_47_1_node_341;
  to R2_12_47_1_node_339;
  length 55.890;
  configuration ID_59;
}
object overhead_line {
  name R2_12_47_1_ol_52;
  phases CN;
  from R2_12_47_1_node_339;
  to R2_12_47_1_node_338;
  length 102.715;
  configuration ID_59;
}
object overhead_line {
  name R2_12_47_1_ol_53;
// downstream 54.46 kva on BS
  phases BN;
  from R2_12_47_1_node_380;
  to R2_12_47_1_node_375;
  length 63.403;
  configuration ID_60;
}
object overhead_line {
  name R2_12_47_1_ol_54;
// downstream 51.05 kva on BS
  phases BN;
  from R2_12_47_1_node_375;
  to R2_12_47_1_node_374;
  length 92.543;
  configuration ID_60;
}
object overhead_line {
  name R2_12_47_1_ol_55;
// downstream 34.04 kva on BS
  phases BN;
  from R2_12_47_1_node_374;
  to R2_12_47_1_node_369;
  length 182.029;
  configuration ID_60;
}
object overhead_line {
  name R2_12_47_1_ol_56;
  phases BN;
  from R2_12_47_1_node_396;
  to R2_12_47_1_node_397;
  length 113.507;
  configuration ID_49;
}
object overhead_line {
  name R2_12_47_1_ol_57;
// downstream 5467.21 kva on ABCS
  phases ABCN;
  from R2_12_47_1_node_357;
  to R2_12_47_1_node_329;
  length 72.888;
  configuration ID_57;
}
object overhead_line {
  name R2_12_47_1_ol_58;
// downstream 85.09 kva on BS
  phases BN;
  from R2_12_47_1_node_405;
  to R2_12_47_1_node_406;
  length 152.292;
  configuration ID_49;
}
object overhead_line {
  name R2_12_47_1_ol_59;
// downstream 68.07 kva on BS
  phases BN;
  from R2_12_47_1_node_406;
  to R2_12_47_1_node_407;
  length 151.762;
  configuration ID_49;
}
object overhead_line {
  name R2_12_47_1_ol_60;
// downstream 51.05 kva on BS
  phases BN;
  from R2_12_47_1_node_407;
  to R2_12_47_1_node_408;
  length 149.490;
  configuration ID_49;
}
object overhead_line {
  name R2_12_47_1_ol_61;
// downstream 52.99 kva on ABC
  phases ABCN;
  from R2_12_47_1_node_91;
  to R2_12_47_1_node_283;
  length 32.216;
  configuration ID_51;
}
object overhead_line {
  name R2_12_47_1_ol_62;
// downstream 17.74 kva on AB
  phases ABN;
  from R2_12_47_1_node_284;
  to R2_12_47_1_node_86;
  length 241.936;
  configuration ID_65;
}
object overhead_line {
  name R2_12_47_1_ol_63;
// downstream 36.67 kva on ABC
  phases ABCN;
  from R2_12_47_1_node_283;
  to R2_12_47_1_node_284;
  length 29.865;
  configuration ID_51;
}
object overhead_line {
  name R2_12_47_1_ol_64;
// downstream 157.07 kva on ABC
  phases ABCN;
  from R2_12_47_1_node_285;
  to R2_12_47_1_node_87;
  length 41.301;
  configuration ID_62;
}
object overhead_line {
  name R2_12_47_1_ol_65;
// downstream 701.20 kva on ABC
  phases ABCN;
  from R2_12_47_1_node_76;
  to R2_12_47_1_node_285;
  length 164.943;
  configuration ID_62;
}
object overhead_line {
  name R2_12_47_1_ol_66;
// downstream 652.10 kva on ABC
  phases ABCN;
  from R2_12_47_1_node_42;
  to R2_12_47_1_node_293;
  length 32.620;
  configuration ID_66;
}
object overhead_line {
  name R2_12_47_1_ol_67;
// downstream 5.54 kva on A
  phases ABCN;
  from R2_12_47_1_node_8;
  to R2_12_47_1_node_6;
  length 77.737;
  configuration ID_41;
}
object overhead_line {
  name R2_12_47_1_ol_68;
// downstream 5.54 kva on A
  phases ABCN;
  from R2_12_47_1_node_7;
  to R2_12_47_1_node_8;
  length 5.175;
  configuration ID_41;
}
object overhead_line {
  name R2_12_47_1_ol_69;
// downstream 198.33 kva on ABC
  phases ABCN;
  from R2_12_47_1_node_15;
  to R2_12_47_1_node_16;
  length 165.165;
  configuration ID_62;
}
object overhead_line {
  name R2_12_47_1_ol_70;
// downstream 8.51 kva on B
  phases ABCN;
  from R2_12_47_1_node_19;
  to R2_12_47_1_node_22;
  length 56.080;
  configuration ID_62;
}
object overhead_line {
  name R2_12_47_1_ol_71;
// downstream 187.45 kva on ABC
  phases ABCN;
  from R2_12_47_1_node_16;
  to R2_12_47_1_node_19;
  length 81.855;
  configuration ID_62;
}
object overhead_line {
  name R2_12_47_1_ol_72;
// downstream 147.11 kva on ABC
  phases ABCN;
  from R2_12_47_1_node_19;
  to R2_12_47_1_node_23;
  length 224.015;
  configuration ID_62;
}
object overhead_line {
  name R2_12_47_1_ol_73;
// downstream 8.51 kva on B
  phases BN;
  from R2_12_47_1_node_22;
  to R2_12_47_1_node_21;
  length 563.633;
  configuration ID_45;
}
object overhead_line {
  name R2_12_47_1_ol_74;
// downstream 147.11 kva on ABC
  phases ABCN;
...